4
-2100.389582062638
C       0.00189600      -0.00343400       0.60184300 
C      -0.00186900       0.00289300      -0.60217400 
H       0.00313400      -0.00302700       1.65756600 
H      -0.00345300       0.00946200      -1.65362400 
4
-2100.37955917691
C       0.14939500      -0.26410900       0.51984200 
C      -0.14978400       0.26066100      -0.52278000 
H       0.43824200      -0.73150500       1.41927000 
H      -0.43360100       0.77180800      -1.38576200 
4
-2100.3421816072787
C       0.26078600      -0.45960700       0.27629400 
C      -0.26282400       0.45655800      -0.28322300 
H       0.77266800      -1.29415100       0.77753500 
H      -0.74780900       1.33277700      -0.70182700 
4
-2100.3095620270833
C       0.29252100      -0.51286400      -0.07514500 
C      -0.29689800       0.51323800       0.06689600 
H       0.86701400      -1.45912000      -0.16378200 
H      -0.81776000       1.46284900       0.24993300 
4
-2100.3867852503367
C       0.22090600      -0.38222500      -0.40848700 
C      -0.22561400       0.38553700       0.40298400 
H       0.65565700      -1.10697000      -1.05649200 
H      -0.60167000       1.08049000       1.10692000 
4
-2100.3751017492914
C       0.07487100      -0.12380600      -0.58772300 
C      -0.07706100       0.12674100       0.58481700 
H       0.24014400      -0.40168000      -1.57778200 
H      -0.21105900       0.37955500       1.59041800 
4
-2100.3745508703682
C      -0.08277300       0.15173800      -0.57712300 
C       0.08404700      -0.15044300       0.57311700 
H      -0.23833000       0.41615500      -1.61030500 
H       0.23054800      -0.41876000       1.61883900 
4
-2100.3145034135077
C      -0.21224400       0.37596800      -0.41871700 
C       0.21610400      -0.37517000       0.41030500 
H      -0.63882900       1.10135900      -1.12664400 
H       0.60474900      -1.09836400       1.16284400 
4
-2100.384279567721
C      -0.29082100       0.51114100      -0.14492800 
C       0.29545100      -0.50859600       0.13129600 
H      -0.82837400       1.41923200      -0.29824200 
H       0.79272100      -1.43786300       0.36464600 
4
-2100.3698438671736
C      -0.28437600       0.49814400       0.19842900 
C       0.28801300      -0.49290000      -0.21493400 
H      -0.77975900       1.31946600       0.60094500 
H       0.76196800      -1.36975000      -0.53357900 
4
-2100.3816377121534
C      -0.17359500       0.30381600       0.48725500 
C       0.17611700      -0.29692100      -0.50403700 
H      -0.50833900       0.83382000       1.36591800 
H       0.51232500      -0.90067200      -1.32993800 
4
-2100.304356972585
C      -0.00262100       0.00495700       0.59486100 
C       0.00487400       0.00038300      -0.61096600 
H      -0.04298600       0.03205000       1.71032600 
H       0.05899000      -0.07589600      -1.71471600 
4
-2100.3731958182043
C       0.15925400      -0.27895000       0.50570000 
C      -0.15652700       0.28085400      -0.52585800 
H       0.44034700      -0.77542700       1.43744800 
H      -0.42093100       0.77615100      -1.44781500 
4
-2100.367091058058
C       0.26951000      -0.47154500       0.27243700 
C      -0.26693700       0.47188300      -0.29934500 
H       0.75483100      -1.28127900       0.74277800 
H      -0.72522800       1.30501200      -0.72642800 
4
-2100.377694847193
C       0.30417300      -0.52967400      -0.04007200 
C      -0.30255100       0.53140900       0.00675600 
H       0.86754200      -1.44354000      -0.09869000 
H      -0.81744900       1.45658000       0.14286700 
4
-2100.3014302089687
C       0.25452500      -0.43482800      -0.35584300 
C      -0.25379100       0.44015200       0.31829700 
H       0.75733800      -1.23774600      -0.94083700 
H      -0.68723100       1.21822500       0.98374200 
4
-2100.3348196438274
C       0.12446500      -0.19765900      -0.58349800 
C      -0.12240600       0.20568100       0.54479300 
H       0.39979200      -0.62819600      -1.55324300 
H      -0.33044800       0.58476000       1.55795300 
4
-2100.350311277933
C      -0.05243800       0.11753200      -0.62657300 
C       0.05840000      -0.10927100       0.58457500 
H      -0.11076900       0.23207100      -1.66738600 
H       0.14980300      -0.26881200       1.62808400 
4
-2100.3604831254233
C      -0.20805100       0.38811700      -0.46082400 
C       0.21871100      -0.38081900       0.40732700 
H      -0.58520600       1.02702900      -1.21356500 
H       0.58400000      -1.04440100       1.16467800 
4
-2100.3023542358715
C      -0.28912500       0.52272900      -0.17042600 
C       0.30317900      -0.51444500       0.10287800 
H      -0.84732600       1.45808200      -0.35055600 
H       0.82381400      -1.47634800       0.32337000 
4
-2100.301661707374
C      -0.28756100       0.51063000       0.14565100 
C       0.30193300      -0.49933300      -0.22592700 
H      -0.81596500       1.38520800       0.56860400 
H       0.80027200      -1.42707200      -0.58179200 
4
-2100.348075704574
C      -0.20533500       0.36083900       0.41729100 
C       0.21909300      -0.34665400      -0.50788700 
H      -0.56066200       0.92514000       1.24867700 
H       0.56826800      -0.99090200      -1.27886200 
4
-2100.337686229378
C      -0.05388900       0.09613900       0.56192200 
C       0.06731600      -0.08120500      -0.66179600 
H      -0.17086300       0.24103200       1.61055500 
H       0.20187400      -0.30941600      -1.68163600 
4
-2100.300669662258
C       0.12295600      -0.20776900       0.51126100 
C      -0.10906600       0.22100900      -0.62010800 
H       0.30785700      -0.57770300       1.54585600 
H      -0.26177000       0.53604500      -1.66079900 
4
-2100.2690722178513
C       0.26223000      -0.44414400       0.27315000 
C      -0.24699100       0.45414000      -0.39364900 
H       0.72900800      -1.26233800       0.88950900 
H      -0.67694700       1.26716300      -1.01609500 
4
-2100.34459124006
C       0.31765900      -0.53257800      -0.07090000 
C      -0.30117400       0.54179800      -0.06399500 
H       0.87726700      -1.45506600      -0.10589400 
H      -0.81538600       1.47716800       0.00110500 
4
-2100.3314193784763
C       0.27515300      -0.44808400      -0.40514300 
C      -0.25787300       0.45956300       0.25727600 
H       0.75122800      -1.18771200      -0.98505000 
H      -0.67330000       1.19015500       0.89457500 
4
-2100.33249250609
C       0.15614600      -0.22973500      -0.62800700 
C      -0.13778700       0.24470200       0.47030300 
H       0.45553700      -0.65515800      -1.58481200 
H      -0.36426500       0.62265300       1.47692000 
4
-2100.273425887168
C       0.00049900       0.05012300      -0.69270600 
C       0.02043400      -0.03299500       0.52868900 
H       0.03766600       0.05375600      -1.80311800 
H       0.04799800      -0.10607900       1.65082200 
4
-2100.350082503255
C      -0.15437600       0.32354000      -0.58575900 
C       0.18004200      -0.30690000       0.41911200 
H      -0.41658000       0.79914600      -1.51419200 
H       0.47125600      -0.84076100       1.32448500 
4
-2100.339231862666
C      -0.26452400       0.51038800      -0.31680600 
C       0.29592200      -0.49554300       0.14414100 
H      -0.75443000       1.33381300      -0.73181300 
H       0.76851400      -1.35002300       0.54057200 
4
-2100.3600880080044
C      -0.28335300       0.52916400       0.03468500 
C       0.31913700      -0.51413900      -0.21668500 
H      -0.83006200       1.41868800       0.31280400 
H       0.82602900      -1.43540600      -0.47049600 
4
-2100.285695285934
C      -0.20406100       0.37629900       0.33672400 
C       0.24170300      -0.35871800      -0.52650200 
H      -0.59142500       0.97918100       1.19653600 
H       0.60604100      -1.03030200      -1.33657100 
4
-2100.35583663501
C      -0.06040000       0.11870200       0.49858400 
C       0.09878000      -0.10004600      -0.69174900 
H      -0.17809800       0.25919600       1.58000200 
H       0.22433100      -0.33399200      -1.74400800 
4
-2100.3632882849356
C       0.10295100      -0.16315500       0.48645300 
C      -0.06335700       0.18012100      -0.68145300 
H       0.24458800      -0.46411600       1.48952900 
H      -0.17545900       0.39871000      -1.69522000 
4
-2100.381157339403
C       0.24154600      -0.39409200       0.30608600 
C      -0.19990900       0.40705800      -0.50503700 
H       0.61722400      -1.08521100       1.03653200 
H      -0.53816900       1.05734300      -1.27255000 
4
-2100.316560245655
C       0.31742200      -0.51212000       0.00618700 
C      -0.27339600       0.52032400      -0.21184000 
H       0.86427500      -1.45943600       0.21262300 
H      -0.78035800       1.47554900      -0.44310600 
4
-2100.3483610215985
C       0.30716500      -0.47830700      -0.33786500 
C      -0.26088800       0.48393100       0.12294200 
H       0.83613400      -1.32936900      -0.78677900 
H      -0.73921400       1.35466300       0.59054700 
4
-2100.378452590173
C       0.20261500      -0.28137700      -0.61868400 
C      -0.15410700       0.28846300       0.39636500 
H       0.52632800      -0.73114000      -1.50624300 
H      -0.41085600       0.72138100       1.32264500 
4
-2100.3839754432906
C       0.03834400       0.01369000      -0.72028300 
C       0.01303600      -0.00438400       0.49385000 
H       0.09710200       0.02712100      -1.76568900 
H       0.02581200      -0.07516300       1.55301000 
4
-2100.336960845852
C      -0.11808100       0.28842400      -0.62579900 
C       0.17421000      -0.27908800       0.39210800 
H      -0.33752600       0.74887500      -1.59161400 
H       0.44480900      -0.80751100       1.32636400 
4
-2100.3298391711473
C      -0.22368700       0.46875800      -0.40017800 
C       0.28601900      -0.46166600       0.15735700 
H      -0.67793600       1.27073100      -0.99299200 
H       0.74948100      -1.31044100       0.69504800 
4
-2100.3905605070913
C      -0.26387800       0.52623600      -0.10681900 
C       0.33215200      -0.52236300      -0.14890400 
H      -0.81229300       1.42611300      -0.10954600 
H       0.85005000      -1.44371700      -0.18001800 
4
-2100.3776703621693
C      -0.22337200       0.43565300       0.19402500 
C       0.29551200      -0.43308200      -0.46531000 
H      -0.69058900       1.15071700       0.80345400 
H       0.71929000      -1.17444800      -1.06049400 
4
-2100.3482481004226
C      -0.09842300       0.19871300       0.40584400 
C       0.17142900      -0.19493500      -0.69054400 
H      -0.31726100       0.47368100       1.44711800 
H       0.37316600      -0.53748500      -1.69794400 
4
-2100.3003589433993
C       0.07503100      -0.10989600       0.43689400 
C      -0.00160500       0.11328100      -0.73008100 
H       0.18175400      -0.37637200       1.51449500 
H      -0.08827800       0.28733600      -1.81070500 
4
-2100.383564246479
C       0.23371000      -0.37526000       0.27662400 
C      -0.15832900       0.37407900      -0.57501300 
H       0.59279900      -1.04445300       1.03237200 
H      -0.47996700       0.97739000      -1.38105700 
4
-2100.3688575162323
C       0.32579700      -0.51385100      -0.00511900 
C      -0.24715900       0.50518400      -0.30035300 
H       0.82439000      -1.38822500       0.27188500 
H      -0.71059700       1.37044800      -0.64189800 
4
-2100.3731485285653
C       0.33474100      -0.50522000      -0.31423200 
C      -0.25276600       0.48979700      -0.00160200 
H       0.87117800      -1.39904500      -0.59095700 
H      -0.75679400       1.41691400       0.24261200 
4
-2100.3029334944927
C       0.26739800      -0.36759100      -0.58339100 
C      -0.18312900       0.34843700       0.25554200 
H       0.68632000      -1.00189900      -1.38081800 
H      -0.55891800       1.00946800       1.06852000 
4
-2100.379240774458
C       0.13136100      -0.11871500      -0.75250400 
C      -0.04533800       0.09866400       0.41448400 
H       0.29376900      -0.27010600      -1.79445700 
H      -0.14786900       0.22824400       1.48347800 
4
-2100.3633292938594
C      -0.04475500       0.18759600      -0.73420400 
C       0.13385500      -0.20951400       0.39327700 
H      -0.16767700       0.52615200      -1.70114200 
H       0.31602600      -0.60944100       1.34281900 
4
-2100.3841611930125
C      -0.18822600       0.42463500      -0.50806900 
C       0.28278800      -0.45209900       0.16688400 
H      -0.57243000       1.16685900      -1.17295800 
H       0.69452200      -1.24993600       0.75954200 
4
-2100.304808234381
C      -0.24409200       0.50310700      -0.18765300 
C       0.34518500      -0.53803100      -0.15727800 
H      -0.79922500       1.45380500      -0.31904800 
H       0.87857300      -1.50891200      -0.10644800 
4
-2100.3730600147005
C      -0.21712900       0.43540800       0.11133200 
C       0.32265600      -0.47601300      -0.46376700 
H      -0.74773400       1.25937000       0.58656200 
H       0.80141000      -1.30049500      -0.97501500 
4
-2100.3743863632076
C      -0.12537600       0.25421300       0.33248900 
C       0.23168400      -0.29701200      -0.69222800 
H      -0.45154500       0.68660700       1.23390700 
H       0.51495700      -0.75104700      -1.58228800 
4
-2100.387128546815
C       0.01793800      -0.01069400       0.42479900 
C       0.08689300      -0.03244600      -0.78740000 
H      -0.01489500      -0.07585500       1.49540400 
H       0.11256300      -0.03037700      -1.84387700 
4
-2100.309096407541
C       0.18233100      -0.29899700       0.34021300 
C      -0.07908900       0.25333000      -0.69968100 
H       0.46375200      -0.85945400       1.26469800 
H      -0.33182900       0.73576000      -1.65955300 
4
-2100.3392341709796
C       0.31388300      -0.51043800       0.07595300 
C      -0.21021700       0.45785100      -0.43173300 
H       0.81193900      -1.38492500       0.52954900 
H      -0.66870200       1.29604800      -0.97017200 
4
-2100.36947121372
C       0.35677400      -0.55421500      -0.27686600 
C      -0.25098900       0.49300300      -0.07930900 
H       0.89446000      -1.44615300      -0.42306300 
H      -0.75876000       1.41392200      -0.01182400 
4
-2100.3746606966583
C       0.30097100      -0.42764200      -0.57996400 
C      -0.19379800       0.36094900       0.21954600 
H       0.73672400      -1.09969200      -1.26132800 
H      -0.60340000       1.09235000       0.87543000 
4
-2100.3253770160673
C       0.18076900      -0.20118400      -0.75371500 
C      -0.07342500       0.13324900       0.38953800 
H       0.40415100      -0.46872000      -1.79325400 
H      -0.25624300       0.43110900       1.44669300 
4
-2100.307418549801
C       0.02957100       0.06431100      -0.78327100 
C       0.07781600      -0.13178300       0.42011000 
H      -0.01844300       0.28266600      -1.86180900 
H       0.17973000      -0.37315900       1.50684700 
4
-2100.3613241479384
C      -0.12513200       0.32209000      -0.64937800 
C       0.23427100      -0.39120500       0.29174500 
H      -0.41347300       0.93510900      -1.46395500 
H       0.56537900      -1.05628400       1.06361600 
4
-2100.343506528229
C      -0.23140100       0.48372900      -0.34891100 
C       0.34486000      -0.55775900      -0.00325100 
H      -0.70236800       1.35151200      -0.71895000 
H       0.81507900      -1.45809500       0.27442600 
4
-2100.3183138578065
C      -0.23610600       0.46355900       0.01676500 
C       0.35459900      -0.54382000      -0.36766400 
H      -0.79550900       1.38830500       0.25372100 
H       0.85947200      -1.45953700      -0.69275200 
4
-2100.266452683394
C      -0.14567700       0.28219700       0.30056300 
C       0.26696300      -0.36633600      -0.65469600 
H      -0.58173800       0.90099500       1.13607100 
H       0.62698900      -0.96374700      -1.51984400 
4
-2100.345815232413
C      -0.00525600       0.02149700       0.43389400 
C       0.12553200      -0.10534000      -0.79002600 
H      -0.14157700       0.09236600       1.51056100 
H       0.21222400      -0.18840400      -1.85351700 
4
-2100.328317127773
C       0.14733900      -0.25079300       0.40415200 
C      -0.02943300       0.16754600      -0.75445100 
H       0.31830700      -0.67677200       1.35788100 
H      -0.20630900       0.54725100      -1.71355600 
4
-2100.335322506487
C       0.27863500      -0.47158200       0.21600200 
C      -0.16186400       0.38605700      -0.55635600 
H       0.69876100      -1.26114500       0.84196600 
H      -0.55747100       1.13319900      -1.24139200 
4
-2100.2523003578626
C       0.35395000      -0.57845100      -0.09144700 
C      -0.23692000       0.48746300      -0.24011700 
H       0.91868600      -1.53828900       0.02775800 
H      -0.77052200       1.45321100      -0.45852100 
4
-2100.323004898779
C       0.34388300      -0.52460900      -0.43813600 
C      -0.22506900       0.42621200       0.11115700 
H       0.87168200      -1.35264300      -0.90111400 
H      -0.73226800       1.32185800       0.49321200 
4
-2100.3163414584396
C       0.23972300      -0.30897600      -0.70145200 
C      -0.11920800       0.20630200       0.37575700 
H       0.55551800      -0.73160000      -1.60087700 
H      -0.41780300       0.70963400       1.25804100 
4
-2100.3447234839837
C       0.07960300      -0.01430100      -0.77857600 
C       0.04107000      -0.08785300       0.45747500 
H       0.09963600       0.08805900      -1.84250500 
H       0.05275000      -0.15438200       1.53997200 
4
-2100.274862336378
C      -0.07738100       0.25246000      -0.66797600 
C       0.19862200      -0.35334100       0.36140300 
H      -0.34411800       0.83948400      -1.57455800 
H       0.50432500      -0.95519700       1.25853300 
4
-2100.3276339392714
C      -0.19388100       0.43222800      -0.42478000 
C       0.31762600      -0.53399600       0.13379100 
H      -0.64463700       1.29895600      -0.92825300 
H       0.78648100      -1.42803100       0.57490000 
4
-2100.348873101171
C      -0.24206100       0.48355400      -0.10184600 
C       0.37003700      -0.58983600      -0.17534700 
H      -0.76232400       1.40489500      -0.11253700 
H       0.86599500      -1.51348000      -0.25441300 
4
-2100.3556200644584
C      -0.19798800       0.37472300       0.22044200 
C       0.33125000      -0.48791200      -0.48686000 
H      -0.69445900       1.16831300       0.74414000 
H       0.75947900      -1.24917500      -1.08017100 
4
-2100.3005229682944
C      -0.06916500       0.12931600       0.43533800 
C       0.20588900      -0.24714800      -0.69292200 
H      -0.38134000       0.51461000       1.44015400 
H       0.43533500      -0.59872900      -1.71193100 
4
-2100.3156848475887
C       0.09928200      -0.17141200       0.47347200 
C       0.03734300       0.05205900      -0.72227500 
H       0.13180600      -0.41018500       1.56298700 
H      -0.04680900       0.28673000      -1.79439300 
4
-2100.3760555015456
C       0.25496700      -0.43602800       0.32821200 
C      -0.11933800       0.31429600      -0.56778800 
H       0.58978900      -1.13938000       1.05144600 
H      -0.46176700       0.98922100      -1.30343300 
4
-2100.3740135200846
C       0.35034800      -0.58252800       0.05073300 
C      -0.21455000       0.45426600      -0.28008300 
H       0.85099900      -1.47884100       0.27071800 
H      -0.70148200       1.34737500      -0.56170200 
4
-2100.34569289797
C       0.36218300      -0.57573100      -0.26481400 
C      -0.22502000       0.43905700       0.04296200 
H       0.91440600      -1.46891200      -0.55932100 
H      -0.76224200       1.38067800       0.25576600 
4
-2100.309024535338
C       0.29696200      -0.43320400      -0.53488700 
C      -0.15808300       0.28887800       0.31699500 
H       0.74729800      -1.08481200      -1.29830400 
H      -0.60071100       1.03174500       1.02546900 
4
-2100.387076599615
C       0.16896700      -0.18683600      -0.69595600 
C      -0.02865700       0.03778400       0.48009400 
H       0.36094500      -0.37200600      -1.71722300 
H      -0.21240100       0.31186400       1.50114200 
4
-2100.3704712720373
C       0.00443300       0.10688800      -0.68338800 
C       0.13656700      -0.25738200       0.47020200 
H      -0.12390200       0.45489800      -1.65251000 
H       0.28396000      -0.56495300       1.45947300 
4
-2100.373380298675
C      -0.14191100       0.34502500      -0.47790600 
C       0.28456800      -0.49753600       0.27049100 
H      -0.54950900       1.13019000      -1.10622300 
H       0.70967300      -1.28480000       0.88321700 
4
-2100.3006495084187
C      -0.21635700       0.44091300      -0.15805400 
C       0.36301400      -0.59867300      -0.04281500 
H      -0.76305900       1.40703100      -0.25946600 
H       0.89773300      -1.56636200      -0.00537100 
4
-2100.381373591051
C      -0.20386200       0.38094600       0.16353400 
C       0.35433400      -0.54529700      -0.36106200 
H      -0.72295800       1.23720900       0.57141300 
H       0.82190800      -1.37443300      -0.84312600 
4
-2100.36231079949
C      -0.11472500       0.19592900       0.40083500 
C       0.26763000      -0.36592000      -0.59851400 
H      -0.49505200       0.74964100       1.20519100 
H       0.57098200      -0.87240800      -1.44581000 
4
-2100.382039937359
C       0.02461000      -0.06137700       0.49807900 
C       0.12839500      -0.11169800      -0.69634800 
H      -0.12287300       0.03464400       1.56142200 
H       0.20017900      -0.16833900      -1.75869300 
4
-2100.2971016211723
C       0.17920300      -0.32930400       0.43462200 
C      -0.02852000       0.15471200      -0.63242600 
H       0.35366100      -0.80127300       1.42524100 
H      -0.24685200       0.63473100      -1.60513800 
4
-2100.3637900006665
C       0.31091000      -0.54225300       0.21129800 
C      -0.16308400       0.36486900      -0.40507000 
H       0.74655600      -1.40001200       0.70700200 
H      -0.60315200       1.21583100      -0.91627300 
4
-2100.366308284088
C       0.36996200      -0.61543900      -0.12532100 
C      -0.22250600       0.43146700      -0.06389300 
H       0.88585500      -1.50419100      -0.24297800 
H      -0.72787000       1.34474900      -0.00288400 
4
-2100.382421355183
C       0.32842500      -0.51014800      -0.44640800 
C      -0.18032300       0.31775600       0.25857700 
H       0.79359800      -1.20853100      -1.07911600 
H      -0.63932800       1.09378800       0.83232600 
4
-2100.307362782563
C       0.21534000      -0.28818000      -0.64216500 
C      -0.06633800       0.08938600       0.45240100 
H       0.51218400      -0.62865700      -1.64064000 
H      -0.36306300       0.53491600       1.42685800 
4
-2100.345048564288
C       0.07421900      -0.02944300      -0.68986500 
C       0.07503800      -0.17192800       0.49706600 
H       0.09657300       0.11106000      -1.76879500 
H       0.05504900      -0.22643000       1.59425200 
4
-2100.382446623541
C      -0.06862700       0.21730000      -0.58968500 
C       0.21786900      -0.41885800       0.39564100 
H      -0.32868100       0.79745600      -1.42063500 
H       0.48612400      -0.96172400       1.25076100 
4
-2100.384425669342
C      -0.18053400       0.38875600      -0.33723300 
C       0.33097100      -0.59255700       0.14530000 
H      -0.65157900       1.25903200      -0.70806300 
H       0.80080500      -1.45601900       0.50219600 
4
-2100.3288898065107
C      -0.21561900       0.40761300       0.00998900 
C       0.36944100      -0.61576600      -0.19936500 
H      -0.77298600       1.34429700       0.21754800 
H       0.89157800      -1.53895100      -0.46199500 
